LTspice 24.1.10 for Windows
Circuit: C:\Users\Usuario\OneDrive - Universidad de Málaga\Universidad\1º\Recuperaciones\Electronica\P4\11.net
Start Time: Mon Nov 10 16:58:52 2025
solver = Normal
Maximum thread count: 12
tnom = 27
temp = 27
method = trap
.OP point found by inspection.
.step VGS=0 
.step VGS=1 
.step VGS=2 
.step VGS=3 
.step VGS=4 
.step VGS=5 
Total elapsed time: 0.404 seconds.

Files loaded:
C:\Users\Usuario\OneDrive - Universidad de Málaga\Universidad\1º\Recuperaciones\Electronica\P4\11.net
C:\Users\Usuario\AppData\Local\LTspice\lib\cmp\standard.mos

