LTspice 24.1.9 for Windows
Circuit: Z:\home\miguel\Universidad\primero\Electronica\Practica4\11.net
Start Time: Tue Nov 11 10:07:27 2025
solver = Normal
Maximum thread count: 16
tnom = 27
temp = 27
method = trap
.OP point found by inspection.
.step VGS=0 
.step VGS=1 
.step VGS=2 
.step VGS=3 
.step VGS=4 
.step VGS=5 
Total elapsed time: 0.387 seconds.

Files loaded:
Z:\home\miguel\Universidad\primero\Electronica\Practica4\11.net
C:\users\miguel\AppData\Local\LTspice\lib\cmp\standard.mos

