LTspice 24.1.10 for Windows
Circuit: C:\Users\Usuario\OneDrive - Universidad de Málaga\Universidad\1º\Recuperaciones\Electronica\P4\122.net
Start Time: Mon Nov 10 19:52:21 2025
solver = Normal
Maximum thread count: 12
tnom = 27
temp = 27
method = trap
Direct Newton iteration for .op point succeeded.
Total elapsed time: 0.214 seconds.

Files loaded:
C:\Users\Usuario\OneDrive - Universidad de Málaga\Universidad\1º\Recuperaciones\Electronica\P4\122.net
C:\Users\Usuario\AppData\Local\LTspice\lib\cmp\standard.mos

