LTspice 24.1.9 for Windows
Circuit: Z:\home\miguel\Universidad\primero\Electronica\Practica4\122.net
Start Time: Tue Nov 11 10:11:46 2025
solver = Normal
Maximum thread count: 16
tnom = 27
temp = 27
method = trap
Direct Newton iteration for .op point succeeded.
Total elapsed time: 0.190 seconds.

Files loaded:
Z:\home\miguel\Universidad\primero\Electronica\Practica4\122.net
C:\users\miguel\AppData\Local\LTspice\lib\cmp\standard.mos

