LTspice 24.1.9 for Windows
Circuit: Z:\home\miguel\Universidad\primero\Electronica\Practica4\131.net
Start Time: Tue Nov 11 13:21:02 2025
solver = Normal
Maximum thread count: 16
tnom = 27
temp = 27
method = trap
WARNING: Node n003 is floating.

Z:\home\miguel\Universidad\primero\Electronica\Practica4\131.net(3): Missing value, assuming 0V @ DC.

Vi N004 0
^^^^^^^^^
.step 
Total elapsed time: 0.075 seconds.

Files loaded:
Z:\home\miguel\Universidad\primero\Electronica\Practica4\131.net
C:\users\miguel\AppData\Local\LTspice\lib\cmp\standard.mos

