LTspice 24.1.10 for Windows
Circuit: C:\Users\Usuario\OneDrive - Universidad de Málaga\Universidad\1º\Recuperaciones\Electronica\P4\131.net
Start Time: Mon Nov 10 19:52:40 2025
solver = Normal
Maximum thread count: 12
tnom = 27
temp = 27
method = trap
WARNING: Node n003 is floating.

C:\Users\Usuario\OneDrive - Universidad de Málaga\Universidad\1º\Recuperaciones\Electronica\P4\131.net(3): Missing value, assuming 0V @ DC.

Vi N004 0
^^^^^^^^^
.step 
Total elapsed time: 0.132 seconds.

Files loaded:
C:\Users\Usuario\OneDrive - Universidad de Málaga\Universidad\1º\Recuperaciones\Electronica\P4\131.net
C:\Users\Usuario\AppData\Local\LTspice\lib\cmp\standard.mos

