LTspice 24.1.9 for Windows
Circuit: Z:\home\miguel\Universidad\primero\Electronica\Practica4\132.net
Start Time: Tue Nov 11 10:33:44 2025
solver = Normal
Maximum thread count: 16
tnom = 27
temp = 27
method = trap
WARNING: Node n003 is floating.

Direct Newton iteration for .op point succeeded.
Warning: Simulation tolerance relaxed to achieve convergence from 7.5150848062162335e-04 to 7.5150848062162433e-04 seconds.
Warning: Simulation tolerance relaxed to achieve convergence from 1.2484915239977439e-03 to 1.2484915239977538e-03 seconds.
Warning: Simulation tolerance relaxed to achieve convergence from 1.2484915239977538e-03 to 1.2484915239977638e-03 seconds.
Total elapsed time: 0.167 seconds.

Files loaded:
Z:\home\miguel\Universidad\primero\Electronica\Practica4\132.net
C:\users\miguel\AppData\Local\LTspice\lib\cmp\standard.mos

