LTspice 24.1.10 for Windows
Circuit: C:\Users\Usuario\OneDrive - Universidad de Málaga\Universidad\1º\Recuperaciones\Electronica\P4\14.net
Start Time: Mon Nov 10 19:53:08 2025
solver = Normal
Maximum thread count: 12
tnom = 27
temp = 27
method = trap
Direct Newton iteration for .op point succeeded.
Warning: Simulation tolerance relaxed to achieve convergence from 5.0026801162958137e-05 to 5.0026801162959140e-05 seconds.
Total elapsed time: 0.215 seconds.

Files loaded:
C:\Users\Usuario\OneDrive - Universidad de Málaga\Universidad\1º\Recuperaciones\Electronica\P4\14.net
C:\Users\Usuario\AppData\Local\LTspice\lib\cmp\standard.mos

