LTspice 24.1.9 for Windows
Circuit: Z:\home\miguel\Universidad\primero\electronica\ejercicios\e1\Draft1.net
Start Time: Mon Sep 22 18:56:35 2025
solver = Normal
Maximum thread count: 16
tnom = 27
temp = 27
method = trap
Direct Newton iteration for .op point succeeded.
Total elapsed time: 0.022 seconds.

Files loaded:
Z:\home\miguel\Universidad\primero\electronica\ejercicios\e1\Draft1.net

