LTspice 24.1.10 for Windows
Circuit: C:\Users\Usuario\OneDrive - Universidad de Málaga\Universidad\1º\Recuperaciones\Electronica\p3\11.net
Start Time: Wed Nov  5 13:59:46 2025
solver = Normal
Maximum thread count: 12
tnom = 27
temp = 27
method = trap
C:\Users\Usuario\OneDrive - Universidad de Málaga\Universidad\1º\Recuperaciones\Electronica\p3\11.net(3): Missing value, assuming 0V @ DC.

VCE N001 0
^^^^^^^^^^
.OP point found by inspection.
.step Ib=0 
.step Ib=1e-05 
.step Ib=2e-05 
.step Ib=3e-05 
.step Ib=4e-05 
.step Ib=5e-05 
Total elapsed time: 0.156 seconds.

Files loaded:
C:\Users\Usuario\OneDrive - Universidad de Málaga\Universidad\1º\Recuperaciones\Electronica\p3\11.net
C:\Users\Usuario\AppData\Local\LTspice\lib\cmp\standard.bjt

