LTspice 24.1.9 for Windows
Circuit: Z:\home\miguel\Universidad\primero\Electronica\Practica3\11.net
Start Time: Tue Nov 11 09:45:13 2025
solver = Normal
Maximum thread count: 16
tnom = 27
temp = 27
method = trap
Z:\home\miguel\Universidad\primero\Electronica\Practica3\11.net(3): Missing value, assuming 0V @ DC.

VCE N001 0
^^^^^^^^^^
.OP point found by inspection.
.step Ib=0 
.step Ib=1e-05 
.step Ib=2e-05 
.step Ib=3e-05 
.step Ib=4e-05 
.step Ib=5e-05 
Total elapsed time: 0.329 seconds.

Files loaded:
Z:\home\miguel\Universidad\primero\Electronica\Practica3\11.net
C:\users\miguel\AppData\Local\LTspice\lib\cmp\standard.bjt

