LTspice 24.1.10 for Windows
Circuit: C:\Users\Usuario\OneDrive - Universidad de Málaga\Universidad\1º\Recuperaciones\Electronica\p3\12.net
Start Time: Wed Nov  5 12:46:32 2025
solver = Normal
Maximum thread count: 12
tnom = 27
temp = 27
method = trap
C:\Users\Usuario\OneDrive - Universidad de Málaga\Universidad\1º\Recuperaciones\Electronica\p3\12.net(4): Missing value, assuming 0V @ DC.

Vi N003 0
^^^^^^^^^
.step 
Total elapsed time: 0.064 seconds.

Files loaded:
C:\Users\Usuario\OneDrive - Universidad de Málaga\Universidad\1º\Recuperaciones\Electronica\p3\12.net
C:\Users\Usuario\AppData\Local\LTspice\lib\cmp\standard.bjt

