LTspice 24.1.9 for Windows
Circuit: Z:\home\miguel\Universidad\primero\Electronica\Practica3\121.net
Start Time: Tue Nov 11 09:48:45 2025
solver = Normal
Maximum thread count: 16
tnom = 27
temp = 27
method = trap
Z:\home\miguel\Universidad\primero\Electronica\Practica3\121.net(4): Missing value, assuming 0V @ DC.

Vi N003 0
^^^^^^^^^
.step 
Total elapsed time: 0.038 seconds.

Files loaded:
Z:\home\miguel\Universidad\primero\Electronica\Practica3\121.net
C:\users\miguel\AppData\Local\LTspice\lib\cmp\standard.bjt

