LTspice 24.1.10 for Windows
Circuit: C:\Users\Usuario\OneDrive - Universidad de Málaga\Universidad\1º\Recuperaciones\Electronica\p3\122.net
Start Time: Wed Nov  5 13:14:26 2025
solver = Normal
Maximum thread count: 12
tnom = 27
temp = 27
method = trap
Direct Newton iteration for .op point succeeded.
Total elapsed time: 0.114 seconds.

Files loaded:
C:\Users\Usuario\OneDrive - Universidad de Málaga\Universidad\1º\Recuperaciones\Electronica\p3\122.net
C:\Users\Usuario\AppData\Local\LTspice\lib\cmp\standard.bjt

