LTspice 24.1.9 for Windows
Circuit: Z:\home\miguel\Universidad\primero\Electronica\Practica3\123.net
Start Time: Tue Nov 11 09:57:23 2025
solver = Normal
Maximum thread count: 16
tnom = 27
temp = 27
method = trap
Direct Newton iteration for .op point succeeded.
Total elapsed time: 0.134 seconds.

Files loaded:
Z:\home\miguel\Universidad\primero\Electronica\Practica3\123.net
C:\users\miguel\AppData\Local\LTspice\lib\cmp\standard.bjt

