LTspice 24.1.9 for Windows
Circuit: Z:\home\miguel\Universidad\primero\Electronica\112.net
Start Time: Thu Oct  9 13:13:17 2025
solver = Normal
Maximum thread count: 16
tnom = 27
temp = 27
method = trap
.OP point found by inspection.
.step 
Total elapsed time: 0.037 seconds.

Files loaded:
Z:\home\miguel\Universidad\primero\Electronica\112.net
C:\users\miguel\AppData\Local\LTspice\lib\cmp\standard.dio

