LTspice 24.1.9 for Windows
Circuit: Z:\home\miguel\Universidad\primero\Electronica\121.net
Start Time: Thu Oct  9 13:07:04 2025
solver = Normal
Maximum thread count: 16
tnom = 27
temp = 27
method = trap
Direct Newton iteration for .op point succeeded.
Total elapsed time: 0.109 seconds.

Files loaded:
Z:\home\miguel\Universidad\primero\Electronica\121.net
C:\users\miguel\AppData\Local\LTspice\lib\cmp\standard.dio

